Version 4.1
SHEET 1 880 680
WIRE 256 0 -32 0
WIRE 368 0 256 0
WIRE 256 32 256 0
WIRE 368 32 368 0
WIRE -32 48 -32 0
WIRE 368 128 368 112
WIRE 464 128 368 128
WIRE 368 144 368 128
WIRE 256 192 256 112
WIRE 256 192 224 192
WIRE 304 192 256 192
WIRE -208 240 -208 208
WIRE 368 256 368 240
WIRE 464 256 368 256
WIRE 256 272 256 192
WIRE 368 272 368 256
WIRE 464 288 464 256
WIRE -208 384 -208 320
WIRE -32 384 -32 128
WIRE -32 384 -208 384
WIRE 256 384 256 352
WIRE 256 384 -32 384
WIRE 368 384 368 352
WIRE 368 384 256 384
WIRE 464 384 464 352
WIRE 464 384 368 384
WIRE -32 432 -32 384
FLAG -32 432 0
FLAG 160 192 Input
IOPIN 160 192 In
FLAG -208 208 Input
IOPIN -208 208 Out
SYMBOL voltage -32 32 R0
WINDOW 123 0 0 Left 0
WINDOW 39 0 0 Left 0
SYMATTR InstName V1
SYMATTR Value 8
SYMBOL res 352 16 R0
SYMATTR InstName R1
SYMATTR Value 260
SYMBOL npn 304 144 R0
SYMATTR InstName Q1
SYMATTR Value 2N4401
SYMBOL res 352 256 R0
SYMATTR InstName R2
SYMATTR Value 10
SYMBOL cap 448 288 R0
SYMATTR InstName C1
SYMATTR Value 10Á
SYMBOL cap 528 112 R90
WINDOW 0 0 32 VBottom 2
WINDOW 3 32 32 VTop 2
SYMATTR InstName C2
SYMATTR Value 47Á
SYMBOL cap 224 176 R90
WINDOW 0 0 32 VBottom 2
WINDOW 3 32 32 VTop 2
SYMATTR InstName C3
SYMATTR Value 10Á
SYMBOL voltage -208 224 R0
WINDOW 123 0 0 Left 0
WINDOW 39 0 0 Left 0
SYMATTR InstName V3
SYMATTR Value SINE(0 0.02 1k)
SYMBOL res 240 16 R0
SYMATTR InstName R3
SYMATTR Value 82k
SYMBOL res 240 256 R0
SYMATTR InstName R4
SYMATTR Value 120k
TEXT 112 424 Left 2 !.tran 10m
